
     RDKit          3D

 65 67  0  0  0  0  0  0  0  0999 V2000
   -3.1374    3.4197   -0.9990 C   0  0  0  0  0  0  0  0  0  0  0  0
   -2.8421    2.0002   -0.8636 N   0  0  0  0  0  0  0  0  0  0  0  0
   -1.5652    1.6611   -0.3956 C   0  0  0  0  0  0  0  0  0  0  0  0
   -0.7846    2.5098    0.0551 O   0  0  0  0  0  0  0  0  0  0  0  0
   -1.1640    0.1597   -0.4914 C   0  0  1  0  0  0  0  0  0  0  0  0
    0.2333    0.0183   -0.1726 N   0  0  0  0  0  0  0  0  0  0  0  0
    1.1796    0.2763   -1.1374 C   0  0  0  0  0  0  0  0  0  0  0  0
    0.9019    0.4162   -2.3242 O   0  0  0  0  0  0  0  0  0  0  0  0
    2.6140    0.3481   -0.5905 C   0  0  2  0  0  0  0  0  0  0  0  0
    3.4933    1.1399   -1.5860 C   0  0  0  0  0  0  0  0  0  0  0  0
    4.5959    1.9541   -0.9049 C   0  0  0  0  0  0  0  0  0  0  0  0
    5.4865    2.6584   -1.9097 C   0  0  0  0  0  0  0  0  0  0  0  0
    4.7899    3.4917   -2.7057 F   0  0  0  0  0  0  0  0  0  0  0  0
    6.4258    3.3859   -1.2671 F   0  0  0  0  0  0  0  0  0  0  0  0
    6.1311    1.7616   -2.6876 F   0  0  0  0  0  0  0  0  0  0  0  0
    3.0585   -1.0947   -0.2091 C   0  0  2  0  0  0  0  0  0  0  0  0
    3.4297   -1.3092    1.2790 C   0  0  0  0  0  0  0  0  0  0  0  0
    4.4263   -0.3416    1.9191 C   0  0  0  0  0  0  0  0  0  0  0  0
    4.6544   -0.6673    3.3848 C   0  0  0  0  0  0  0  0  0  0  0  0
    5.1679   -1.9048    3.5379 F   0  0  0  0  0  0  0  0  0  0  0  0
    3.5046   -0.5962    4.0850 F   0  0  0  0  0  0  0  0  0  0  0  0
    5.5239    0.2113    3.9284 F   0  0  0  0  0  0  0  0  0  0  0  0
    4.0206   -1.7775   -1.1772 C   0  0  0  0  0  0  0  0  0  0  0  0
    5.3491   -1.5126   -1.0759 N   0  0  0  0  0  0  0  0  0  0  0  0
    3.6316   -2.5523   -2.0463 O   0  0  0  0  0  0  0  0  0  0  0  0
   -1.8771   -0.5475    0.5595 N   0  0  0  0  0  0  0  0  0  0  0  0
   -3.1496   -0.7054    0.3965 C   0  0  0  0  0  0  0  0  0  0  0  0
   -3.8983   -1.3874    1.4985 C   0  0  0  0  0  0  0  0  0  0  0  0
   -3.2814   -2.4394    2.1867 C   0  0  0  0  0  0  0  0  0  0  0  0
   -3.9578   -3.0895    3.2189 C   0  0  0  0  0  0  0  0  0  0  0  0
   -5.2439   -2.6831    3.5739 C   0  0  0  0  0  0  0  0  0  0  0  0
   -5.8555   -1.6237    2.9034 C   0  0  0  0  0  0  0  0  0  0  0  0
   -5.1844   -0.9709    1.8673 C   0  0  0  0  0  0  0  0  0  0  0  0
   -3.9090   -0.2588   -0.8110 C   0  0  0  0  0  0  0  0  0  0  0  0
   -4.8121   -1.1804   -1.3722 C   0  0  0  0  0  0  0  0  0  0  0  0
   -5.6332   -0.8107   -2.4327 C   0  0  0  0  0  0  0  0  0  0  0  0
   -5.5596    0.4797   -2.9399 C   0  0  0  0  0  0  0  0  0  0  0  0
   -4.6482    1.3938   -2.4025 C   0  0  0  0  0  0  0  0  0  0  0  0
   -3.7867    1.0396   -1.3472 C   0  0  0  0  0  0  0  0  0  0  0  0
   -4.2035    3.6055   -0.8352 H   0  0  0  0  0  0  0  0  0  0  0  0
   -2.8360    3.7529   -1.9969 H   0  0  0  0  0  0  0  0  0  0  0  0
   -2.5852    4.0100   -0.2610 H   0  0  0  0  0  0  0  0  0  0  0  0
   -1.3413   -0.2401   -1.4959 H   0  0  0  0  0  0  0  0  0  0  0  0
    0.4445    0.2238    0.7916 H   0  0  0  0  0  0  0  0  0  0  0  0
    2.5236    0.9565    0.3187 H   0  0  0  0  0  0  0  0  0  0  0  0
    3.9080    0.4847   -2.3577 H   0  0  0  0  0  0  0  0  0  0  0  0
    2.8702    1.8626   -2.1293 H   0  0  0  0  0  0  0  0  0  0  0  0
    4.1439    2.7024   -0.2443 H   0  0  0  0  0  0  0  0  0  0  0  0
    5.2195    1.3131   -0.2797 H   0  0  0  0  0  0  0  0  0  0  0  0
    2.1695   -1.7405   -0.3101 H   0  0  0  0  0  0  0  0  0  0  0  0
    3.8076   -2.3332    1.4038 H   0  0  0  0  0  0  0  0  0  0  0  0
    2.4973   -1.2609    1.8581 H   0  0  0  0  0  0  0  0  0  0  0  0
    4.0633    0.6877    1.8515 H   0  0  0  0  0  0  0  0  0  0  0  0
    5.3910   -0.3864    1.4095 H   0  0  0  0  0  0  0  0  0  0  0  0
    5.9249   -1.9303   -1.8003 H   0  0  0  0  0  0  0  0  0  0  0  0
    5.7328   -0.7108   -0.6078 H   0  0  0  0  0  0  0  0  0  0  0  0
   -2.2758   -2.7581    1.9182 H   0  0  0  0  0  0  0  0  0  0  0  0
   -3.4802   -3.9108    3.7485 H   0  0  0  0  0  0  0  0  0  0  0  0
   -5.7672   -3.1895    4.3809 H   0  0  0  0  0  0  0  0  0  0  0  0
   -6.8521   -1.3037    3.1954 H   0  0  0  0  0  0  0  0  0  0  0  0
   -5.6686   -0.1349    1.3710 H   0  0  0  0  0  0  0  0  0  0  0  0
   -4.8871   -2.1948   -0.9836 H   0  0  0  0  0  0  0  0  0  0  0  0
   -6.3297   -1.5281   -2.8584 H   0  0  0  0  0  0  0  0  0  0  0  0
   -6.1993    0.7726   -3.7690 H   0  0  0  0  0  0  0  0  0  0  0  0
   -4.5981    2.3779   -2.8630 H   0  0  0  0  0  0  0  0  0  0  0  0
  1  2  1  0
  2  3  1  0
  3  4  2  0
  3  5  1  0
  5  6  1  0
  6  7  1  0
  7  8  2  0
  7  9  1  0
  9 10  1  0
 10 11  1  0
 11 12  1  0
 12 13  1  0
 12 14  1  0
 12 15  1  0
  9 16  1  0
 16 17  1  0
 17 18  1  0
 18 19  1  0
 19 20  1  0
 19 21  1  0
 19 22  1  0
 16 23  1  0
 23 24  1  0
 23 25  2  0
  5 26  1  0
 26 27  2  0
 27 28  1  0
 28 29  2  0
 29 30  1  0
 30 31  2  0
 31 32  1  0
 32 33  2  0
 27 34  1  0
 34 35  2  0
 35 36  1  0
 36 37  2  0
 37 38  1  0
 38 39  2  0
 39  2  1  0
 33 28  1  0
 39 34  1  0
  1 40  1  0
  1 41  1  0
  1 42  1  0
  5 43  1  6
  6 44  1  0
  9 45  1  1
 10 46  1  0
 10 47  1  0
 11 48  1  0
 11 49  1  0
 16 50  1  1
 17 51  1  0
 17 52  1  0
 18 53  1  0
 18 54  1  0
 24 55  1  0
 24 56  1  0
 29 57  1  0
 30 58  1  0
 31 59  1  0
 32 60  1  0
 33 61  1  0
 35 62  1  0
 36 63  1  0
 37 64  1  0
 38 65  1  0
M  END
